# ****************************************************************************
# *  Copyright: National ICT Australia,  2007 - 2010                         *
# *  Developed at the ATP lab, Networked Systems research theme              *
# *  Author(s): Athanassios Boulis, Yuriy Tselishchev                        *
# *  This file is distributed under the terms in the attached LICENSE file.  *
# *  If you do not find this file, copies can be found by writing to:        *
# *                                                                          *
# *      NICTA, Locked Bag 9013, Alexandria, NSW 1435, Australia             *
# *      Attention:  License Inquiry.                                        *
# *                                                                          *
# ***************************************************************************/

# /*
#  * @author Ugo Colesanti
#  * @author Silvia Santini
#  * @version 1.0 (January 27, 2011)
#  */

[General]

debug-on-errors = true

# ==============================================
# Always include the main Castalia.ini file
# ==============================================

include ../Parameters/Castalia.ini

sim-time-limit = 300s

SN.field_x = 250		# meters
SN.field_y = 250		# meters

SN.numNodes = 100
SN.deployment = "uniform"



include ../Parameters/PhysicalProcess/node0_asssignedValue40.ini

SN.node[*].Communication.Radio.RadioParametersFile = "../Parameters/Radio/CC2420.txt"
SN.node[*].Communication.MACProtocolName = "CC2420Mac" 
SN.node[*].Communication.RoutingProtocolName = "CtpNoe"
SN.node[*].ApplicationName = "CtpTestingApplication"
SN.node[*].Application.packet_rate = 0.3333
SN.node[*].Application.startupDelay = 10 
SN.node[*].Application.collectTraceInfo = true
SN.node[*].Application.constantDataPayload = 10

SN.node[0].Communication.Routing.CtpRoutingEngine.isRoot = true

SN.node[*].Communication.MAC.collectTraceInfo = false
SN.node[*].Communication.MAC.txFifoWriteTimeout = 0
SN.node[*].Communication.MAC.enableCCA = true
SN.node[*].Communication.MAC.datarate = 250000 #must be the same than Radio module
SN.node[*].Communication.MAC.phyFrameOverhead = 6 #must be the same than Radio module
SN.node[*].Communication.MAC.macAckOverhead = 5 

SN.node[*].Communication.Radio.TxOutputPower = "0dBm"
